
JGcorina  12081714213D 1   1.00000     0.00000     0
CORINA 4.00 0026  21.06.2017
 39 41  0  0  0  0            999 V2000
   -0.0178    1.4608    0.0101 C   0  0  0  0  0  0  0  0  0  0  0  0
    0.0021   -0.0041    0.0020 N   0  3  0  0  0  0  0  0  0  0  0  0
    0.0072   -0.7290   -1.0965 C   0  0  0  0  0  0  0  0  0  0  0  0
   -0.0061   -0.2020   -2.3526 N   0  0  0  0  0  0  0  0  0  0  0  0
    0.0273   -2.0649   -0.8356 N   0  0  0  0  0  0  0  0  0  0  0  0
    0.0359   -2.1899    0.6336 C   0  0  1  0  0  0  0  0  0  0  0  0
   -1.2104   -2.9325    1.1197 C   0  0  0  0  0  0  0  0  0  0  0  0
    1.2860   -2.8899    1.1006 C   0  0  0  0  0  0  0  0  0  0  0  0
    1.8338   -2.5767    2.3317 C   0  0  0  0  0  0  0  0  0  0  0  0
    2.9812   -3.2148    2.7664 C   0  0  0  0  0  0  0  0  0  0  0  0
    3.5862   -4.1687    1.9729 C   0  0  0  0  0  0  0  0  0  0  0  0
    3.0386   -4.4884    0.7324 C   0  0  0  0  0  0  0  0  0  0  0  0
    3.6843   -5.5134   -0.1247 C   0  0  0  0  0  0  0  0  0  0  0  0
    3.1396   -5.8290   -1.3681 C   0  0  0  0  0  0  0  0  0  0  0  0
    3.7436   -6.7829   -2.1617 C   0  0  0  0  0  0  0  0  0  0  0  0
    4.8879   -7.4259   -1.7254 C   0  0  0  0  0  0  0  0  0  0  0  0
    5.4336   -7.1168   -0.4915 C   0  0  0  0  0  0  0  0  0  0  0  0
    6.8700   -7.9282    0.0488 Cl  0  0  0  0  0  0  0  0  0  0  0  0
    4.8400   -6.1592    0.3082 C   0  0  0  0  0  0  0  0  0  0  0  0
    1.8791   -3.8463    0.3019 C   0  0  0  0  0  0  0  0  0  0  0  0
    0.0227   -0.7487    1.1039 C   0  0  0  0  0  0  0  0  0  0  0  0
    0.0241   -0.3542    2.2536 O   0  0  0  0  0  0  0  0  0  0  0  0
    1.0048    1.8381    0.0023 H   0  0  0  0  0  0  0  0  0  0  0  0
   -0.5450    1.8219   -0.8730 H   0  0  0  0  0  0  0  0  0  0  0  0
   -0.5280    1.8123    0.9069 H   0  0  0  0  0  0  0  0  0  0  0  0
   -0.0206    0.7601   -2.4748 H   0  0  0  0  0  0  0  0  0  0  0  0
   -0.0010   -0.7890   -3.1249 H   0  0  0  0  0  0  0  0  0  0  0  0
    0.0340   -2.7868   -1.4835 H   0  0  0  0  0  0  0  0  0  0  0  0
   -1.2266   -3.9345    0.6911 H   0  0  0  0  0  0  0  0  0  0  0  0
   -1.1903   -3.0028    2.2073 H   0  0  0  0  0  0  0  0  0  0  0  0
   -2.1021   -2.3891    0.8072 H   0  0  0  0  0  0  0  0  0  0  0  0
    1.3639   -1.8307    2.9556 H   0  0  0  0  0  0  0  0  0  0  0  0
    3.4048   -2.9662    3.7282 H   0  0  0  0  0  0  0  0  0  0  0  0
    4.4826   -4.6660    2.3130 H   0  0  0  0  0  0  0  0  0  0  0  0
    2.2460   -5.3280   -1.7099 H   0  0  0  0  0  0  0  0  0  0  0  0
    3.3217   -7.0281   -3.1252 H   0  0  0  0  0  0  0  0  0  0  0  0
    5.3571   -8.1720   -2.3496 H   0  0  0  0  0  0  0  0  0  0  0  0
    5.2662   -5.9183    1.2709 H   0  0  0  0  0  0  0  0  0  0  0  0
    1.4503   -4.0906   -0.6587 H   0  0  0  0  0  0  0  0  0  0  0  0
  1  2  1  0  0  0  0
  1 23  1  0  0  0  0
  1 24  1  0  0  0  0
  1 25  1  0  0  0  0
  2 21  1  0  0  0  0
  2  3  2  0  0  0  0
  3  4  1  0  0  0  0
  3  5  1  0  0  0  0
  4 26  1  0  0  0  0
  4 27  1  0  0  0  0
  5  6  1  0  0  0  0
  5 28  1  0  0  0  0
  6  7  1  0  0  0  0
  6  8  1  0  0  0  0
  6 21  1  0  0  0  0
  7 29  1  0  0  0  0
  7 30  1  0  0  0  0
  7 31  1  0  0  0  0
  8 20  2  0  0  0  0
  8  9  1  0  0  0  0
  9 10  2  0  0  0  0
  9 32  1  0  0  0  0
 10 11  1  0  0  0  0
 10 33  1  0  0  0  0
 11 12  2  0  0  0  0
 11 34  1  0  0  0  0
 12 13  1  0  0  0  0
 12 20  1  0  0  0  0
 13 19  2  0  0  0  0
 13 14  1  0  0  0  0
 14 15  2  0  0  0  0
 14 35  1  0  0  0  0
 15 16  1  0  0  0  0
 15 36  1  0  0  0  0
 16 17  2  0  0  0  0
 16 37  1  0  0  0  0
 17 18  1  0  0  0  0
 17 19  1  0  0  0  0
 19 38  1  0  0  0  0
 20 39  1  0  0  0  0
 21 22  2  0  0  0  0
M  CHG  1   2   1
M  END
$$$$
